#p opt=(TS,CalcAll,cartesian,maxcycle=500) gen um06l int=grid=ultrafine scf=(xqc,intrep,maxconventionalcycle=150) pop=(hirshfeld) nosymm

FeFeFe-TS1-0xH2O

0 15 
  O            -0.801253             2.549731            -1.325370
  O             1.259982             1.687404            -1.625781
  C             0.314438             2.441774            -1.908175
  H             0.453556             3.108523            -2.776149
  O            -2.392758            -1.701524             1.463257
  O            -2.924921             0.485352             1.363575
  C            -3.035025            -0.678850             1.808036
  H            -3.784783            -0.828738             2.602328
  O             1.817998            -1.215989            -1.349403
  O            -2.952855             0.768600            -1.387963
  O            -2.581584            -1.450940            -1.284736
  C            -3.155220            -0.426543            -1.716457
  H            -3.932163            -0.588700            -2.481673
  O             1.215727             1.966778             1.295479
  O            -0.966674             2.505918             1.492533
  C             0.259352             2.576594             1.799629
  H             0.489658             3.273638             2.623047
 Fe             1.658160             0.426921            -0.035531
  O             1.844466            -0.913901             1.556411
 Fe            -1.006207            -1.739548            -0.004856
  O             0.272868            -2.510862             1.305438
  O             0.003344            -2.549268            -1.498963
 Fe            -1.639742             1.362234             0.027235
  O            -0.377067             0.001525            -0.006371
  C             1.288692            -1.986401             1.844047
  H             1.725809            -2.568385             2.673696
  C             1.160420            -2.152194            -1.829055
  H             1.625796            -2.724990            -2.649389
  N             4.593275            -0.205925             0.167680
  N             5.713474            -0.120375             0.199181
  O             3.467941             0.797914            -0.068885

@/zfs/curium/svicchi/00-MOF/01-Gaussian/zw-basis-set/def2-TZVP/H.gbs
****
@/zfs/curium/svicchi/00-MOF/01-Gaussian/zw-basis-set/def2-TZVP/O.gbs
****
@/zfs/curium/svicchi/00-MOF/01-Gaussian/zw-basis-set/def2-TZVP/C.gbs
****
@/zfs/curium/svicchi/00-MOF/01-Gaussian/zw-basis-set/def2-TZVP/Fe.gbs
****
@/zfs/curium/svicchi/00-MOF/01-Gaussian/zw-basis-set/def2-TZVP/N.gbs
****








