%NProcShared=2
%mem=110gb
%chk=/scratch1/svicchi/G09-55806.pbs02/00-opt/FeFeFe-A-1xH2O-opt.chk
#p opt=(cartesian,maxcycle=500) gen um06l int=grid=ultrafine scf=(xqc,intrep,maxconventionalcycle=150) pop=(hirshfeld) nosymm

FeFeFe-A-1xH2O

0 15 
O          1.70958       -2.13728       -1.64403
O         -0.47593       -2.51105       -1.20123
C          0.58189       -2.70334       -1.81264
H          0.57132       -3.46197       -2.61359
O          1.94337        2.04198        1.15500
O          3.11017        0.11701        1.13568
C          2.88810        1.30003        1.49983
H          3.61487        1.72687        2.20979
O         -2.12721       -0.10090       -1.44426
O          2.68564        0.51391       -1.56581
O          1.39996        2.36134       -1.53601
C          2.34095        1.64653       -1.96612
H          2.92579        2.07370       -2.79667
O         -0.53220       -2.10351        1.71630
O          1.65280       -2.25702        1.16257
C          0.64110       -2.48278        1.88152
H          0.82544       -3.10531        2.77333
Fe        -1.39140       -1.13669        0.14496
O         -2.08916        0.37119        1.48140
Fe         0.24626        1.81273        0.01435
O         -0.84150        2.25399        1.58088
O         -1.34154        1.99883       -1.16860
Fe         1.95338       -0.83866       -0.20046
O          0.27845       -0.04884       -0.01298
C         -1.77570        1.47278        1.94944
H         -2.37100        1.84746        2.79952
C         -2.03942        1.10814       -1.72586
H         -2.65637        1.45234       -2.57263
O          0.28241        3.97124        0.04054
H          1.11023        4.38661       -0.24770
H         -0.39849        4.65256        0.15490

@/zfs/curium/svicchi/00-MOF/01-Gaussian/zw-basis-set/def2-TZVP/H.gbs
****
@/zfs/curium/svicchi/00-MOF/01-Gaussian/zw-basis-set/def2-TZVP/O.gbs
****
@/zfs/curium/svicchi/00-MOF/01-Gaussian/zw-basis-set/def2-TZVP/C.gbs
****
@/zfs/curium/svicchi/00-MOF/01-Gaussian/zw-basis-set/def2-TZVP/Fe.gbs
****






